REMARK  5 active torsions:
REMARK  status: ('A' for Active; 'I' for Inactive)
REMARK    1  A    between atoms: C_4  and  O_10 
REMARK    2  A    between atoms: C_7  and  O_13 
REMARK    3  A    between atoms: C_11  and  C_14 
REMARK    4  A    between atoms: C_12  and  O_15 
REMARK    5  A    between atoms: C_20  and  O_21 
ROOT
HETATM    1  C   LIG     1      75.548  36.754  -0.588  1.00  0.00     0.084 A 
HETATM    2  C   LIG     1      75.826  35.442  -0.224  1.00  0.00     0.096 A 
HETATM    3  C   LIG     1      75.222  37.019  -1.985  1.00  0.00     0.223 A 
HETATM    4  C   LIG     1      75.574  37.770   0.373  1.00  0.00     0.085 A 
HETATM    5  O   LIG     1      75.837  34.408  -1.122  1.00  0.00    -0.306 OA
HETATM    6  C   LIG     1      76.116  35.130   1.106  1.00  0.00     0.075 A 
HETATM    7  C   LIG     1      75.194  35.868  -2.922  1.00  0.00     0.152 A 
HETATM    8  O   LIG     1      74.968  38.152  -2.388  1.00  0.00    -0.284 OA
HETATM    9  C   LIG     1      75.866  37.467   1.698  1.00  0.00     0.074 A 
HETATM   10  C   LIG     1      75.510  34.639  -2.462  1.00  0.00     0.123 A 
HETATM   11  C   LIG     1      76.129  36.148   2.056  1.00  0.00     0.071 A 
ENDROOT
BRANCH   4  12
HETATM   12  O   LIG     1      75.320  39.082   0.077  1.00  0.00    -0.360 OA
HETATM   13  H   LIG     1      74.868  39.125  -0.795  1.00  0.00     0.217 HD
ENDBRANCH   4  12
BRANCH   7  14
HETATM   14  O   LIG     1      74.831  36.166  -4.221  1.00  0.00    -0.355 OA
HETATM   15  H   LIG     1      74.788  37.146  -4.262  1.00  0.00     0.218 HD
ENDBRANCH   7  14
BRANCH  10  16
HETATM   16  C   LIG     1      75.555  33.381  -3.275  1.00  0.00     0.001 A 
HETATM   17  C   LIG     1      74.521  33.110  -4.198  1.00  0.00     0.017 A 
HETATM   18  C   LIG     1      74.493  31.932  -4.957  1.00  0.00     0.037 A 
HETATM   19  C   LIG     1      75.511  31.003  -4.810  1.00  0.00     0.065 A 
HETATM   20  C   LIG     1      76.545  31.235  -3.918  1.00  0.00     0.037 A 
HETATM   21  C   LIG     1      76.560  32.408  -3.153  1.00  0.00     0.017 A 
BRANCH  19  22
HETATM   22  O   LIG     1      75.528  29.842  -5.521  1.00  0.00    -0.361 OA
HETATM   23  H   LIG     1      76.331  29.347  -5.290  1.00  0.00     0.217 HD
ENDBRANCH  19  22
ENDBRANCH  10  16
BRANCH  11  24
HETATM   24  O   LIG     1      76.400  35.890   3.368  1.00  0.00    -0.361 OA
HETATM   25  H   LIG     1      75.581  35.629   3.822  1.00  0.00     0.217 HD
ENDBRANCH  11  24
TORSDOF 5
