REMARK  5 active torsions:
REMARK  status: ('A' for Active; 'I' for Inactive)
REMARK    1  A    between atoms: C_4  and  O_10 
REMARK    2  A    between atoms: C_7  and  O_13 
REMARK    3  A    between atoms: C_11  and  C_14 
REMARK    4  A    between atoms: C_12  and  O_15 
REMARK    5  A    between atoms: C_20  and  O_21 
ROOT
HETATM    1  C   LIG     1      81.531  21.534  -3.269  1.00  0.00     0.084 A 
HETATM    2  C   LIG     1      81.869  22.871  -3.441  1.00  0.00     0.096 A 
HETATM    3  C   LIG     1      81.762  20.936  -1.959  1.00  0.00     0.223 A 
HETATM    4  C   LIG     1      80.978  20.808  -4.328  1.00  0.00     0.085 A 
HETATM    5  O   LIG     1      82.433  23.628  -2.449  1.00  0.00    -0.306 OA
HETATM    6  C   LIG     1      81.642  23.500  -4.667  1.00  0.00     0.075 A 
HETATM    7  C   LIG     1      82.328  21.798  -0.891  1.00  0.00     0.152 A 
HETATM    8  O   LIG     1      81.494  19.758  -1.727  1.00  0.00    -0.284 OA
HETATM    9  C   LIG     1      80.753  21.426  -5.553  1.00  0.00     0.074 A 
HETATM   10  C   LIG     1      82.645  23.078  -1.181  1.00  0.00     0.123 A 
HETATM   11  C   LIG     1      81.081  22.770  -5.712  1.00  0.00     0.071 A 
ENDROOT
BRANCH   4  12
HETATM   12  O   LIG     1      80.634  19.487  -4.227  1.00  0.00    -0.360 OA
HETATM   13  H   LIG     1      81.205  19.066  -3.547  1.00  0.00     0.217 HD
ENDBRANCH   4  12
BRANCH   7  14
HETATM   14  O   LIG     1      82.480  21.196   0.342  1.00  0.00    -0.355 OA
HETATM   15  H   LIG     1      82.418  20.231   0.172  1.00  0.00     0.218 HD
ENDBRANCH   7  14
BRANCH  10  16
HETATM   16  C   LIG     1      83.245  24.070  -0.232  1.00  0.00     0.001 A 
HETATM   17  C   LIG     1      83.776  23.625   0.999  1.00  0.00     0.017 A 
HETATM   18  C   LIG     1      84.315  24.513   1.940  1.00  0.00     0.037 A 
HETATM   19  C   LIG     1      84.339  25.870   1.660  1.00  0.00     0.065 A 
HETATM   20  C   LIG     1      83.832  26.345   0.460  1.00  0.00     0.037 A 
HETATM   21  C   LIG     1      83.283  25.454  -0.470  1.00  0.00     0.017 A 
BRANCH  19  22
HETATM   22  O   LIG     1      84.849  26.774   2.541  1.00  0.00    -0.361 OA
HETATM   23  H   LIG     1      84.127  27.105   3.100  1.00  0.00     0.217 HD
ENDBRANCH  19  22
ENDBRANCH  10  16
BRANCH  11  24
HETATM   24  O   LIG     1      80.835  23.343  -6.925  1.00  0.00    -0.361 OA
HETATM   25  H   LIG     1      80.031  22.954  -7.309  1.00  0.00     0.217 HD
ENDBRANCH  11  24
TORSDOF 5
