REMARK  5 active torsions:
REMARK  status: ('A' for Active; 'I' for Inactive)
REMARK    1  A    between atoms: C_4  and  O_10 
REMARK    2  A    between atoms: C_7  and  O_13 
REMARK    3  A    between atoms: C_11  and  C_14 
REMARK    4  A    between atoms: C_12  and  O_15 
REMARK    5  A    between atoms: C_20  and  O_21 
ROOT
HETATM    1  C   LIG     1      75.844  36.156  -0.911  1.00  0.00     0.084 A 
HETATM    2  C   LIG     1      75.113  36.044  -2.086  1.00  0.00     0.096 A 
HETATM    3  C   LIG     1      76.580  34.982  -0.452  1.00  0.00     0.223 A 
HETATM    4  C   LIG     1      75.871  37.368  -0.212  1.00  0.00     0.085 A 
HETATM    5  O   LIG     1      75.032  34.880  -2.804  1.00  0.00    -0.306 OA
HETATM    6  C   LIG     1      74.414  37.146  -2.585  1.00  0.00     0.075 A 
HETATM    7  C   LIG     1      76.510  33.752  -1.279  1.00  0.00     0.152 A 
HETATM    8  O   LIG     1      77.247  34.999   0.581  1.00  0.00    -0.284 OA
HETATM    9  C   LIG     1      75.174  38.467  -0.701  1.00  0.00     0.074 A 
HETATM   10  C   LIG     1      75.743  33.750  -2.389  1.00  0.00     0.123 A 
HETATM   11  C   LIG     1      74.455  38.350  -1.887  1.00  0.00     0.071 A 
ENDROOT
BRANCH   4  12
HETATM   12  O   LIG     1      76.562  37.539   0.956  1.00  0.00    -0.360 OA
HETATM   13  H   LIG     1      76.827  36.656   1.296  1.00  0.00     0.217 HD
ENDBRANCH   4  12
BRANCH   7  14
HETATM   14  O   LIG     1      77.264  32.687  -0.825  1.00  0.00    -0.355 OA
HETATM   15  H   LIG     1      76.619  31.973  -0.632  1.00  0.00     0.218 HD
ENDBRANCH   7  14
BRANCH  10  16
HETATM   16  C   LIG     1      75.544  32.590  -3.317  1.00  0.00     0.001 A 
HETATM   17  C   LIG     1      74.490  32.622  -4.257  1.00  0.00     0.017 A 
HETATM   18  C   LIG     1      74.235  31.550  -5.122  1.00  0.00     0.037 A 
HETATM   19  C   LIG     1      75.040  30.422  -5.066  1.00  0.00     0.065 A 
HETATM   20  C   LIG     1      76.086  30.355  -4.160  1.00  0.00     0.037 A 
HETATM   21  C   LIG     1      76.328  31.425  -3.289  1.00  0.00     0.017 A 
BRANCH  19  22
HETATM   22  O   LIG     1      74.831  29.353  -5.883  1.00  0.00    -0.361 OA
HETATM   23  H   LIG     1      74.870  28.542  -5.350  1.00  0.00     0.217 HD
ENDBRANCH  19  22
ENDBRANCH  10  16
BRANCH  11  24
HETATM   24  O   LIG     1      73.795  39.455  -2.339  1.00  0.00    -0.361 OA
HETATM   25  H   LIG     1      73.784  39.450  -3.311  1.00  0.00     0.217 HD
ENDBRANCH  11  24
TORSDOF 5
